<?xml version="1.0" encoding="utf-8"?>
<febio_spec version="2.0"><!--Created using GIBBON, 04-Sep-2015 10:17:14-->
   <Module type="solid"/>
   <Control>
      <time_steps>100.000000</time_steps>
      <step_size>0.100000</step_size>
      <max_refs>25.000000</max_refs>
      <max_ups>0.000000</max_ups>
      <dtol>0.001000</dtol>
      <etol>0.010000</etol>
      <rtol>0.000000</rtol>
      <lstol>0.900000</lstol>
      <analysis type="static"/>
      <time_stepper>
         <dtmin>0.000100</dtmin>
         <dtmax>0.050000</dtmax>
         <max_retries>5.000000</max_retries>
         <opt_iter>10.000000</opt_iter>
         <aggressiveness>1.000000</aggressiveness>
      </time_stepper>
   </Control>
   <Globals>
      <Constants>
         <T>0.0000000e+00</T>
         <R>0.0000000e+00</R>
         <Fc>0.0000000e+00</Fc>
      </Constants>
   </Globals>
   <Material>
      <material id="1" name="marrow" type="neo-Hookean">
         <E>1.0000000e+09</E>
         <v>3.0000000e-01</v>
      </material>
   </Material>
   <Geometry>
      <Nodes>
         <node id="1">1.2688580e+02, 1.2721766e+02, 9.0708292e+00</node>
         <node id="2">1.2623511e+02, 1.2586586e+02, 8.9746511e+00</node>
         <node id="3">1.2493386e+02, 1.2732592e+02, 9.0059374e+00</node>
         <node id="4">1.2876583e+02, 1.2548124e+02, 9.0079895e+00</node>
         <node id="5">1.2456957e+02, 1.2924695e+02, 8.9520046e+00</node>
         <node id="6">1.2295359e+02, 1.2662290e+02, 8.9591246e+00</node>
         <node id="7">1.2689977e+02, 1.2672149e+02, 4.2008641e+00</node>
         <node id="8">1.3172577e+02, 1.2867884e+02, 8.9790551e+00</node>
         <node id="9">1.3107247e+02, 1.2437083e+02, 9.0095112e+00</node>
         <node id="10">1.2185508e+02, 1.2778849e+02, 8.9913190e+00</node>
         <node id="11">1.2314789e+02, 1.2311550e+02, 8.9939566e+00</node>
         <node id="12">1.2928356e+02, 1.3228737e+02, 8.9494437e+00</node>
         <node id="13">1.2807311e+02, 1.2109132e+02, 9.0278941e+00</node>
         <node id="14">1.2044176e+02, 1.2535551e+02, 8.9957193e+00</node>
         <node id="15">1.2205082e+02, 1.2700437e+02, 4.2018378e+00</node>
         <node id="16">1.2117323e+02, 1.3231236e+02, 8.9523131e+00</node>
         <node id="17">1.2386106e+02, 1.1967611e+02, 8.9412983e+00</node>
         <node id="18">1.1791499e+02, 1.2845031e+02, 8.9997622e+00</node>
         <node id="19">1.1839411e+02, 1.2342573e+02, 8.9946652e+00</node>
         <node id="20">1.2941386e+02, 1.2752530e+02, 7.8219963e-02</node>
<!-- ... 12202 like lines cut -->
      </Nodes>
      <Elements mat="1" name="Marrow" type="tet4">
         <elem id="1">   1,   2,   3,   7</elem>
         <elem id="2">   1,   2,   4,   7</elem>
         <elem id="3">   1,   3,   5,   7</elem>
         <elem id="4">   1,   4,   7,   8</elem>
         <elem id="5">   1,   5,   7,   12</elem>
         <elem id="6">   1,   7,   8,   12</elem>
         <elem id="7">   2,   3,   6,   15</elem>
         <elem id="8">   2,   3,   7,   15</elem>
         <elem id="9">   2,   4,   7,   13</elem>
         <elem id="10">   2,   6,   11,   15</elem>
         <elem id="11">   2,   7,   11,   13</elem>
         <elem id="12">   2,   7,   11,   15</elem>
         <elem id="13">   3,   5,   6,   15</elem>
         <elem id="14">   3,   5,   7,   15</elem>
         <elem id="15">   4,   7,   8,   9</elem>
         <elem id="16">   4,   7,   9,   13</elem>
         <elem id="17">   5,   6,   10,   15</elem>
         <elem id="18">   5,   7,   12,   23</elem>
         <elem id="19">   5,   7,   15,   23</elem>
         <elem id="20">   5,   10,   15,   16</elem>
<!-- ... 35580 like lines cut -->
      </Elements>
      <Surface name="Pressure_surface">
         <tri3 id="1">   1,   2,   3</tri3>
         <tri3 id="2">   1,   2,   4</tri3>
         <tri3 id="3">   1,   3,   5</tri3>
         <tri3 id="4">   1,   4,   8</tri3>
         <tri3 id="5">   1,   5,   12</tri3>
         <tri3 id="6">   1,   8,   12</tri3>
         <tri3 id="7">   2,   3,   6</tri3>
         <tri3 id="8">   2,   4,   13</tri3>
         <tri3 id="9">   2,   6,   11</tri3>
         <tri3 id="10">   2,   11,   13</tri3>
         <tri3 id="11">   3,   5,   6</tri3>
         <tri3 id="12">   4,   8,   9</tri3>
         <tri3 id="13">   4,   9,   13</tri3>
         <tri3 id="14">   5,   6,   10</tri3>
         <tri3 id="15">   5,   10,   16</tri3>
         <tri3 id="16">   5,   12,   22</tri3>
         <tri3 id="17">   5,   16,   22</tri3>
         <tri3 id="18">   6,   10,   14</tri3>
         <tri3 id="19">   6,   11,   14</tri3>
         <tri3 id="20">   8,   9,   24</tri3>
<!-- ... 8176 like lines cut -->
      </Surface>
      <NodeSet name="fixedBC">
         <node id="20"/>
         <node id="21"/>
         <node id="23"/>
         <node id="25"/>
         <node id="27"/>
         <node id="28"/>
         <node id="31"/>
         <node id="33"/>
         <node id="34"/>
         <node id="36"/>
         <node id="38"/>
         <node id="40"/>
         <node id="42"/>
         <node id="45"/>
         <node id="46"/>
         <node id="48"/>
         <node id="50"/>
         <node id="51"/>
         <node id="53"/>
         <node id="54"/>
<!-- ... 3887 like lines cut -->
      </NodeSet>
      <NodeSet name="prescribedBC">
         <node id="1"/>
         <node id="2"/>
         <node id="3"/>
         <node id="4"/>
         <node id="5"/>
         <node id="6"/>
         <node id="8"/>
         <node id="9"/>
         <node id="10"/>
         <node id="11"/>
         <node id="12"/>
         <node id="13"/>
         <node id="14"/>
         <node id="16"/>
         <node id="17"/>
         <node id="18"/>
         <node id="19"/>
         <node id="22"/>
         <node id="24"/>
         <node id="26"/>
<!-- ... 4027 like lines cut -->
      </NodeSet>
   </Geometry>
   <Boundary>
      <fix bc="x" set="fixedBC"/>
      <fix bc="y" set="fixedBC"/>
      <fix bc="z" set="fixedBC"/>
      <prescribe bc="z" lc="1" scale="-1.000000e+00" set="prescribedBC" type="relative"/>
   </Boundary>
   <LoadData>
      <loadcurve id="1" type="linear">
         <loadpoint>0.000000, 0.000000</loadpoint>
         <loadpoint>1.000000, -1.000000</loadpoint>
      </loadcurve>
   </LoadData>
   <Output>
      <plotfile type="febio">
         <var type="displacement"/>
         <var type="relative volume"/>
         <var type="shell thickness"/>
         <var type="stress"/>
         <var type="reaction forces"/>
      </plotfile>
      <logfile>
         <node_data data="ux;uy;uz" delim=", " file="/Users/gustavo/trabecular-bone/febio/marrow/marrowCompression_node_out.txt"/>
      </logfile>
   </Output>
</febio_spec>
