<?xml version="1.0" encoding="ISO-8859-1"?>
<febio_spec version="2.0">
	<Module type="solid"/>
	<Control>
		<time_steps>100</time_steps>
		<step_size>0.1</step_size>
		<max_refs>25</max_refs>
		<max_ups>0</max_ups>
		<dtol>0.001</dtol>
		<etol>0.01</etol>
		<rtol>0</rtol>
		<lstol>0.9</lstol>
		<time_stepper>
			<dtmin>0.0001</dtmin>
			<dtmax>0.05</dtmax>
			<max_retries>5</max_retries>
			<opt_iter>10</opt_iter>
			<aggressiveness>1</aggressiveness>
		</time_stepper>
		<analysis type="static"/>
	</Control>
	<Globals>
		<Constants>
			<T>0</T>
			<R>0</R>
			<Fc>0</Fc>
		</Constants>
	</Globals>
	<Material>
		<material id="1" name="bone" type="rigid body">
			<density>1030</density>
		</material>
	</Material>
	<Geometry>
		<Nodes>
			<node id="1">  5.9281468e+01,  2.4611612e+02,  3.5128507e+00</node>
			<node id="2">  5.9352124e+01,  2.4602249e+02,  3.5002139e+00</node>
			<node id="3">  5.9418368e+01,  2.4612931e+02,  3.4773762e+00</node>
			<node id="4">  5.9226787e+01,  2.4597858e+02,  3.5422160e+00</node>
			<node id="5">  5.9269506e+01,  2.4630664e+02,  3.5132601e+00</node>
			<node id="6">  5.9067869e+01,  2.4616276e+02,  3.4839727e+00</node>
			<node id="7">  5.9283697e+01,  2.4586044e+02,  3.4952451e+00</node>
			<node id="8">  5.9211424e+01,  2.4584367e+02,  3.5111189e+00</node>
			<node id="9">  5.9545434e+01,  2.4597947e+02,  3.5024021e+00</node>
			<node id="10">  5.9182999e+01,  2.4603681e+02,  3.1945669e+00</node>
			<node id="11">  5.8986779e+01,  2.4593710e+02,  3.5287728e+00</node>
			<node id="12">  5.9431689e+01,  2.4578581e+02,  3.4352483e+00</node>
			<node id="13">  5.9264738e+01,  2.4573314e+02,  3.4558054e+00</node>
			<node id="14">  5.9071222e+01,  2.4570097e+02,  3.4973735e+00</node>
			<node id="15">  5.9511629e+01,  2.4570307e+02,  3.5687908e+00</node>
			<node id="16">  5.9752613e+01,  2.4618332e+02,  3.5631843e+00</node>
			<node id="17">  5.9711411e+01,  2.4588926e+02,  3.5618826e+00</node>
			<node id="18">  5.8991112e+01,  2.4650077e+02,  3.4140436e+00</node>
			<node id="19">  5.9637286e+01,  2.4645573e+02,  3.5373266e+00</node>
			<node id="20">  5.9292002e+01,  2.4560209e+02,  3.4415439e+00</node>
<!-- ... 475 like lines cut -->
		</Nodes>
		<Elements type="tet4" mat="1" elset="Part1">
			<elem id="1">    10,     2,     3,     1</elem>
			<elem id="2">     4,     2,    10,     1</elem>
			<elem id="3">    10,     3,     5,     1</elem>
			<elem id="4">     6,     4,    10,     1</elem>
			<elem id="5">    10,     5,     6,     1</elem>
			<elem id="6">     9,     3,    10,     2</elem>
			<elem id="7">    10,     4,     7,     2</elem>
			<elem id="8">    10,     7,    12,     2</elem>
			<elem id="9">    12,     9,    10,     2</elem>
			<elem id="10">    23,     5,    10,     3</elem>
			<elem id="11">    19,     5,    23,     3</elem>
			<elem id="12">    10,     9,    28,     3</elem>
			<elem id="13">    42,     9,    16,     3</elem>
			<elem id="14">    28,     9,    42,     3</elem>
			<elem id="15">    23,    10,    28,     3</elem>
			<elem id="16">    23,    16,    19,     3</elem>
			<elem id="17">    42,    16,    23,     3</elem>
			<elem id="18">    42,    23,    28,     3</elem>
			<elem id="19">    10,     6,    11,     4</elem>
			<elem id="20">     8,     7,    10,     4</elem>
<!-- ... 1927 like lines cut -->
		</Elements>
		<NodeSet name="fixedBC">
			<node id="274"/>
			<node id="275"/>
			<node id="289"/>
			<node id="295"/>
			<node id="299"/>
			<node id="301"/>
			<node id="305"/>
			<node id="308"/>
			<node id="310"/>
			<node id="312"/>
			<node id="315"/>
			<node id="316"/>
			<node id="326"/>
			<node id="336"/>
			<node id="337"/>
			<node id="338"/>
			<node id="340"/>
			<node id="343"/>
			<node id="349"/>
			<node id="355"/>
<!-- ... 35 like lines cut -->
		</NodeSet>
		<NodeSet name="prescribedBC">
			<node id="1"/>
			<node id="2"/>
			<node id="3"/>
			<node id="4"/>
			<node id="5"/>
			<node id="6"/>
			<node id="7"/>
			<node id="8"/>
			<node id="9"/>
			<node id="11"/>
			<node id="12"/>
			<node id="13"/>
			<node id="14"/>
			<node id="15"/>
			<node id="16"/>
			<node id="17"/>
			<node id="18"/>
			<node id="19"/>
			<node id="20"/>
			<node id="21"/>
<!-- ... 55 like lines cut -->
		</NodeSet>
	</Geometry>
	<Loads>
		<surface_load type="pressure">
			<pressure lc="1">1</pressure>
			<linear>0</linear>
			<surface>
				<tri3 id="1">     2,     3,     1</tri3>
				<tri3 id="2">     4,     2,     1</tri3>
				<tri3 id="3">     3,     5,     1</tri3>
				<tri3 id="4">     6,     4,     1</tri3>
				<tri3 id="5">     5,     6,     1</tri3>
				<tri3 id="6">     9,     3,     2</tri3>
				<tri3 id="7">     4,     7,     2</tri3>
				<tri3 id="8">     7,    12,     2</tri3>
				<tri3 id="9">    12,     9,     2</tri3>
				<tri3 id="10">    19,     5,     3</tri3>
				<tri3 id="11">     9,    16,     3</tri3>
				<tri3 id="12">    16,    19,     3</tri3>
				<tri3 id="13">     6,    11,     4</tri3>
				<tri3 id="14">     8,     7,     4</tri3>
				<tri3 id="15">    11,     8,     4</tri3>
				<tri3 id="16">    18,     6,     5</tri3>
				<tri3 id="17">    22,    18,     5</tri3>
				<tri3 id="18">    19,    22,     5</tri3>
				<tri3 id="19">    11,     6,    21</tri3>
				<tri3 id="20">    21,     6,    18</tri3>
<!-- ... 128 like lines cut -->
			</surface>
		</surface_load>
	</Loads>
	<Constraints>
		<rigid_body mat="1">
			<fixed bc="x"/>
			<fixed bc="y"/>
			<fixed bc="Rx"/>
			<fixed bc="Ry"/>
			<fixed bc="Rz"/>
		</rigid_body>
	</Constraints>
	<LoadData>
		<loadcurve id="1" type="linear">
			<point>0,0</point>
			<point>1,1</point>
		</loadcurve>
	</LoadData>
	<Output>
		<plotfile type="febio">
			<var type="displacement"/>
			<var type="reaction forces"/>
			<var type="relative volume"/>
			<var type="shell thickness"/>
			<var type="stress"/>
		</plotfile>
	</Output>
</febio_spec>
