<?xml version="1.0" encoding="ISO-8859-1"?>
<febio_spec version="2.0">
	<Module type="solid"/>
	<Control>
		<time_steps>50</time_steps>
		<step_size>0.05</step_size>
		<max_refs>25</max_refs>
		<max_ups>0</max_ups>
		<dtol>0.001</dtol>
		<etol>0.01</etol>
		<rtol>0</rtol>
		<lstol>0.9</lstol>
		<time_stepper>
			<dtmin>0.0001</dtmin>
			<dtmax>0.05</dtmax>
			<max_retries>5</max_retries>
			<opt_iter>10</opt_iter>
			<aggressiveness>1</aggressiveness>
		</time_stepper>
		<analysis type="static"/>
	</Control>
	<Globals>
		<Constants>
			<T>0</T>
			<R>0</R>
			<Fc>0</Fc>
		</Constants>
	</Globals>
	<Material>
		<material id="1" name="cube_mat" type="Mooney-Rivlin">
			<density>1</density>
			<c1>0.001</c1>
			<c2>0</c2>
			<k>1</k>
		</material>
	</Material>
	<Geometry>
		<Nodes>
			<node id="1">  2.4019517e+02,  1.7442395e+01,  6.1840437e+01</node>
			<node id="2">  2.4158476e+02,  1.8816099e+01,  6.3361873e+01</node>
			<node id="3">  2.4278045e+02,  1.7344192e+01,  6.0847769e+01</node>
			<node id="4">  2.4047059e+02,  1.5359459e+01,  5.8896102e+01</node>
			<node id="5">  2.3911583e+02,  1.9844075e+01,  6.4418223e+01</node>
			<node id="6">  2.3632053e+02,  1.8780296e+01,  6.1605253e+01</node>
			<node id="7">  2.4392110e+02,  1.9151035e+01,  6.2612122e+01</node>
			<node id="8">  2.3797207e+02,  1.4875343e+01,  5.9414746e+01</node>
			<node id="9">  2.4139482e+02,  2.0573241e+01,  6.5121594e+01</node>
			<node id="10">  2.4363455e+02,  1.9803607e+01,  6.4339599e+01</node>
			<node id="11">  2.4522340e+02,  1.8513842e+01,  6.1433087e+01</node>
			<node id="12">  2.4502086e+02,  1.6747895e+01,  5.9247940e+01</node>
			<node id="13">  2.4300890e+02,  2.0473789e+01,  6.5865226e+01</node>
			<node id="14">  2.3550444e+02,  1.5577908e+01,  5.9010781e+01</node>
			<node id="15">  2.4568042e+02,  1.9780966e+01,  6.2602778e+01</node>
			<node id="16">  2.4367140e+02,  1.5345780e+01,  5.7211397e+01</node>
			<node id="17">  2.4166401e+02,  2.1361699e+01,  6.6772929e+01</node>
			<node id="18">  2.3777939e+02,  1.3559300e+01,  5.7183850e+01</node>
			<node id="19">  2.3473313e+02,  2.1816001e+01,  6.1383562e+01</node>
			<node id="20">  2.3998715e+02,  2.1830135e+01,  6.7397215e+01</node>
<!-- ... 1859 like lines cut -->
		</Nodes>
		<Elements type="tet4" mat="1" elset="Part1">
			<elem id="1">     3,     2,    33,     1</elem>
			<elem id="2">    38,     2,     5,     1</elem>
			<elem id="3">    33,     2,    38,     1</elem>
			<elem id="4">     4,     3,    28,     1</elem>
			<elem id="5">    28,     3,    33,     1</elem>
			<elem id="6">     8,     4,     6,     1</elem>
			<elem id="7">     6,     4,    28,     1</elem>
			<elem id="8">    19,     5,     6,     1</elem>
			<elem id="9">    38,     5,    19,     1</elem>
			<elem id="10">    19,     6,    28,     1</elem>
			<elem id="11">    38,    19,    28,     1</elem>
			<elem id="12">    38,    28,    33,     1</elem>
			<elem id="13">    33,     3,     7,     2</elem>
			<elem id="14">     9,     5,    55,     2</elem>
			<elem id="15">    55,     5,    38,     2</elem>
			<elem id="16">     9,     7,    10,     2</elem>
			<elem id="17">    33,     7,     9,     2</elem>
			<elem id="18">    33,     9,    55,     2</elem>
			<elem id="19">    38,    33,    55,     2</elem>
			<elem id="20">    28,     4,    16,     3</elem>
<!-- ... 4898 like lines cut -->
		</Elements>
		<NodeSet name="bcFixList">
			<node id="1686"/>
			<node id="1692"/>
			<node id="1700"/>
			<node id="1705"/>
			<node id="1711"/>
			<node id="1712"/>
			<node id="1721"/>
			<node id="1726"/>
			<node id="1730"/>
			<node id="1731"/>
			<node id="1737"/>
			<node id="1757"/>
			<node id="1760"/>
			<node id="1769"/>
			<node id="1773"/>
			<node id="1782"/>
			<node id="1784"/>
			<node id="1787"/>
			<node id="1790"/>
			<node id="1791"/>
<!-- ... 28 like lines cut -->
		</NodeSet>
		<NodeSet name="bcPrescribeList">
			<node id="399"/>
			<node id="431"/>
			<node id="1113"/>
			<node id="1175"/>
			<node id="1222"/>
			<node id="1838"/>
		</NodeSet>
		<NodeSet name="bcFixList">
			<node id="1686"/>
			<node id="1692"/>
			<node id="1700"/>
			<node id="1705"/>
			<node id="1711"/>
			<node id="1712"/>
			<node id="1721"/>
			<node id="1726"/>
			<node id="1730"/>
			<node id="1731"/>
			<node id="1737"/>
			<node id="1757"/>
			<node id="1760"/>
			<node id="1769"/>
			<node id="1773"/>
			<node id="1782"/>
			<node id="1784"/>
			<node id="1787"/>
			<node id="1790"/>
			<node id="1791"/>
<!-- ... 28 like lines cut -->
		</NodeSet>
		<NodeSet name="bcFixList">
			<node id="1686"/>
			<node id="1692"/>
			<node id="1700"/>
			<node id="1705"/>
			<node id="1711"/>
			<node id="1712"/>
			<node id="1721"/>
			<node id="1726"/>
			<node id="1730"/>
			<node id="1731"/>
			<node id="1737"/>
			<node id="1757"/>
			<node id="1760"/>
			<node id="1769"/>
			<node id="1773"/>
			<node id="1782"/>
			<node id="1784"/>
			<node id="1787"/>
			<node id="1790"/>
			<node id="1791"/>
<!-- ... 28 like lines cut -->
		</NodeSet>
		<NodeSet name="bcFixList">
			<node id="1686"/>
			<node id="1692"/>
			<node id="1700"/>
			<node id="1705"/>
			<node id="1711"/>
			<node id="1712"/>
			<node id="1721"/>
			<node id="1726"/>
			<node id="1730"/>
			<node id="1731"/>
			<node id="1737"/>
			<node id="1757"/>
			<node id="1760"/>
			<node id="1769"/>
			<node id="1773"/>
			<node id="1782"/>
			<node id="1784"/>
			<node id="1787"/>
			<node id="1790"/>
			<node id="1791"/>
<!-- ... 28 like lines cut -->
		</NodeSet>
		<NodeSet name="bcPrescribeList">
			<node id="399"/>
			<node id="431"/>
			<node id="1113"/>
			<node id="1175"/>
			<node id="1222"/>
			<node id="1838"/>
		</NodeSet>
		<NodeSet name="bcPrescribeList">
			<node id="399"/>
			<node id="431"/>
			<node id="1113"/>
			<node id="1175"/>
			<node id="1222"/>
			<node id="1838"/>
		</NodeSet>
		<NodeSet name="bcPrescribeList">
			<node id="399"/>
			<node id="431"/>
			<node id="1113"/>
			<node id="1175"/>
			<node id="1222"/>
			<node id="1838"/>
		</NodeSet>
	</Geometry>
	<Boundary>
		<fix bc="x" set="bcFixList"/>
		<fix bc="y" set="bcFixList"/>
		<fix bc="z" set="bcFixList"/>
		<prescribe type="relative" bc="x" lc="1" set="bcPrescribeList">0</prescribe>
		<prescribe type="relative" bc="y" lc="2" set="bcPrescribeList">0</prescribe>
		<prescribe type="relative" bc="z" lc="3" set="bcPrescribeList">0</prescribe>
	</Boundary>
	<LoadData>
		<loadcurve id="1" type="linear">
			<point>0,0</point>
			<point>1,1</point>
		</loadcurve>
		<loadcurve id="2" type="linear">
			<point>0,0</point>
			<point>1,1</point>
		</loadcurve>
		<loadcurve id="3" type="linear">
			<point>0,0</point>
			<point>1,1</point>
		</loadcurve>
	</LoadData>
	<Output>
		<plotfile type="febio">
			<var type="displacement"/>
			<var type="relative volume"/>
			<var type="shell thickness"/>
			<var type="stress"/>
		</plotfile>
	</Output>
</febio_spec>
