<?xml version="1.0" encoding="utf-8"?>
<febio_spec version="2.0"><!--Created using GIBBON, 03-Sep-2015 19:00:57-->
   <Module type="solid"/>
   <Control>
      <time_steps>100.000000</time_steps>
      <step_size>0.100000</step_size>
      <max_refs>25.000000</max_refs>
      <max_ups>0.000000</max_ups>
      <dtol>0.001000</dtol>
      <etol>0.010000</etol>
      <rtol>0.000000</rtol>
      <lstol>0.900000</lstol>
      <analysis type="static"/>
      <time_stepper>
         <dtmin>0.000100</dtmin>
         <dtmax>0.050000</dtmax>
         <max_retries>5.000000</max_retries>
         <opt_iter>10.000000</opt_iter>
         <aggressiveness>1.000000</aggressiveness>
      </time_stepper>
   </Control>
   <Globals>
      <Constants>
         <T>0.0000000e+00</T>
         <R>0.0000000e+00</R>
         <Fc>0.0000000e+00</Fc>
      </Constants>
   </Globals>
   <Material>
      <material id="1" name="bone" type="neo-Hookean">
         <E>1.0000000e+09</E>
         <v>3.0000000e-01</v>
      </material>
   </Material>
   <Geometry>
      <Nodes>
         <node id="1">2.0003157e+01, 9.7610887e+01, 1.7994431e+00</node>
         <node id="2">2.0847673e+01, 9.7648290e+01, 9.3216410e-01</node>
         <node id="3">1.9463518e+01, 9.7980158e+01, 2.8409792e+00</node>
         <node id="4">2.0040381e+01, 9.8509947e+01, 8.8021012e-01</node>
         <node id="5">2.1242186e+01, 9.7288339e+01, 2.3829664e+00</node>
         <node id="6">1.9254234e+01, 9.9055255e+01, 2.2817503e+00</node>
         <node id="7">2.0532710e+01, 9.6706889e+01, 3.2302908e+00</node>
         <node id="8">2.1891137e+01, 9.8002826e+01, 1.3591990e+00</node>
         <node id="9">1.9216102e+01, 9.9325292e+01, 1.1279610e+00</node>
         <node id="10">1.9511565e+01, 9.7178738e+01, 3.7725294e+00</node>
         <node id="11">2.0959723e+01, 9.8446111e+01, 6.7411031e-02</node>
         <node id="12">2.2214276e+01, 9.7619566e+01, 2.3136191e+00</node>
         <node id="13">1.9830963e+01, 9.8216150e+01, 4.0315748e+00</node>
         <node id="14">2.0578760e+01, 9.7440827e+01, 4.0492500e+00</node>
         <node id="15">2.0172792e+01, 9.6697431e+01, 3.9986513e+00</node>
         <node id="16">2.0355348e+01, 9.5885849e+01, 3.6056393e+00</node>
         <node id="17">1.9683025e+01, 9.9353735e+01, -2.3899519e-02</node>
         <node id="18">2.1589666e+01, 9.7136478e+01, 3.7379294e+00</node>
         <node id="19">2.0895489e+01, 9.8494626e+01, 4.0233802e+00</node>
         <node id="20">1.8753842e+01, 9.8213573e+01, 4.0105421e+00</node>
<!-- ... 485 like lines cut -->
      </Nodes>
      <Elements mat="1" name="Trabeculae" type="tet4">
         <elem id="1">   1,   2,   4,   8</elem>
         <elem id="2">   1,   2,   5,   8</elem>
         <elem id="3">   1,   3,   5,   6</elem>
         <elem id="4">   1,   3,   5,   7</elem>
         <elem id="5">   1,   4,   6,   8</elem>
         <elem id="6">   1,   5,   6,   8</elem>
         <elem id="7">   2,   4,   8,   11</elem>
         <elem id="8">   3,   5,   6,   19</elem>
         <elem id="9">   3,   5,   7,   14</elem>
         <elem id="10">   3,   5,   14,   19</elem>
         <elem id="11">   3,   6,   19,   22</elem>
         <elem id="12">   3,   6,   21,   22</elem>
         <elem id="13">   3,   7,   10,   14</elem>
         <elem id="14">   3,   10,   13,   14</elem>
         <elem id="15">   3,   10,   13,   20</elem>
         <elem id="16">   3,   13,   14,   19</elem>
         <elem id="17">   3,   13,   19,   22</elem>
         <elem id="18">   3,   13,   20,   22</elem>
         <elem id="19">   3,   20,   21,   22</elem>
         <elem id="20">   4,   6,   8,   43</elem>
<!-- ... 1271 like lines cut -->
      </Elements>
      <Surface name="Pressure_surface">
         <tri3 id="1">   3,   10,   20</tri3>
         <tri3 id="2">   7,   10,   15</tri3>
         <tri3 id="3">   10,   13,   14</tri3>
         <tri3 id="4">   10,   13,   20</tri3>
         <tri3 id="5">   10,   14,   15</tri3>
         <tri3 id="6">   13,   14,   19</tri3>
         <tri3 id="7">   13,   19,   22</tri3>
         <tri3 id="8">   13,   20,   22</tri3>
         <tri3 id="9">   14,   15,   26</tri3>
         <tri3 id="10">   14,   18,   19</tri3>
         <tri3 id="11">   14,   18,   26</tri3>
         <tri3 id="12">   15,   16,   26</tri3>
         <tri3 id="13">   18,   19,   28</tri3>
         <tri3 id="14">   19,   22,   27</tri3>
         <tri3 id="15">   19,   27,   36</tri3>
         <tri3 id="16">   19,   28,   36</tri3>
         <tri3 id="17">   20,   21,   22</tri3>
         <tri3 id="18">   21,   22,   42</tri3>
         <tri3 id="19">   21,   42,   44</tri3>
         <tri3 id="20">   22,   27,   34</tri3>
<!-- ... 232 like lines cut -->
      </Surface>
      <NodeSet name="fixedBC">
         <node id="11"/>
         <node id="17"/>
         <node id="23"/>
         <node id="29"/>
         <node id="37"/>
         <node id="39"/>
         <node id="46"/>
         <node id="48"/>
         <node id="52"/>
         <node id="58"/>
         <node id="59"/>
         <node id="69"/>
         <node id="71"/>
         <node id="76"/>
         <node id="81"/>
         <node id="82"/>
         <node id="88"/>
         <node id="94"/>
         <node id="105"/>
         <node id="107"/>
<!-- ... 90 like lines cut -->
      </NodeSet>
      <NodeSet name="prescribedBC">
         <node id="10"/>
         <node id="13"/>
         <node id="14"/>
         <node id="15"/>
         <node id="19"/>
         <node id="20"/>
         <node id="22"/>
         <node id="26"/>
         <node id="27"/>
         <node id="28"/>
         <node id="34"/>
         <node id="36"/>
         <node id="42"/>
         <node id="44"/>
         <node id="45"/>
         <node id="50"/>
         <node id="57"/>
         <node id="61"/>
         <node id="62"/>
         <node id="63"/>
<!-- ... 108 like lines cut -->
      </NodeSet>
   </Geometry>
   <Boundary>
      <fix bc="x" set="fixedBC"/>
      <fix bc="y" set="fixedBC"/>
      <fix bc="z" set="fixedBC"/>
      <prescribe bc="z" lc="1" scale="-1.000000e+00" set="prescribedBC" type="relative"/>
   </Boundary>
   <LoadData>
      <loadcurve id="1" type="linear">
         <loadpoint>0.000000, 0.000000</loadpoint>
         <loadpoint>1.000000, -1.000000</loadpoint>
      </loadcurve>
   </LoadData>
   <Output>
      <plotfile type="febio">
         <var type="displacement"/>
         <var type="relative volume"/>
         <var type="shell thickness"/>
         <var type="stress"/>
         <var type="reaction forces"/>
      </plotfile>
      <logfile>
         <node_data data="ux;uy;uz" delim=", " file="/Users/gustavo/trabecular-bone/febio/boneCompression_node_out.txt"/>
      </logfile>
   </Output>
</febio_spec>
